Version 4
SHEET 1 880 768
WIRE -912 -96 -1088 -96
WIRE -32 -96 -768 -96
WIRE 32 -96 -32 -96
WIRE 160 -96 112 -96
WIRE 352 -96 160 -96
WIRE 576 -96 352 -96
WIRE 352 -48 352 -96
WIRE -576 -32 -720 -32
WIRE -384 -32 -576 -32
WIRE -576 16 -576 -32
WIRE -224 32 -272 32
WIRE -176 32 -224 32
WIRE -128 32 -176 32
WIRE -32 32 -32 -96
WIRE -32 32 -48 32
WIRE -384 48 -384 -32
WIRE 160 48 160 -96
WIRE -272 64 -272 32
WIRE -272 64 -352 64
WIRE -224 64 -224 32
WIRE -176 64 -176 32
WIRE -416 80 -464 80
WIRE -304 96 -352 96
WIRE -864 160 -864 48
WIRE -832 160 -864 160
WIRE -720 160 -720 -32
WIRE -720 160 -752 160
WIRE -304 160 -304 96
WIRE -224 160 -224 128
WIRE -224 160 -304 160
WIRE -176 160 -176 128
WIRE -176 160 -224 160
WIRE -128 160 -176 160
WIRE 160 160 160 128
WIRE 160 160 -48 160
WIRE 160 192 160 160
WIRE -576 208 -576 96
WIRE -576 208 -624 208
WIRE 576 224 576 -96
WIRE -1088 240 -1088 -96
WIRE -624 240 -624 208
WIRE -576 288 -576 208
WIRE 160 320 160 272
WIRE -720 384 -720 160
WIRE -576 400 -576 368
WIRE -384 400 -384 112
WIRE -384 400 -576 400
WIRE 160 448 160 400
WIRE -864 464 -864 160
WIRE -720 512 -720 464
WIRE -720 512 -800 512
WIRE -464 512 -464 80
WIRE -464 512 -720 512
WIRE -720 608 -720 576
WIRE -864 656 -864 560
WIRE -384 656 -384 400
WIRE -384 656 -864 656
WIRE -1088 672 -1088 320
WIRE 576 672 576 304
WIRE 576 672 -1088 672
FLAG 352 -48 0
FLAG -624 240 0
FLAG 160 448 0
FLAG -720 608 0
SYMBOL Opamps\\UniversalOpamp2 -384 80 M0
SYMATTR InstName U1
SYMBOL res 176 144 R180
WINDOW 0 36 76 Left 2
WINDOW 3 36 40 Left 2
SYMATTR InstName R3
SYMATTR Value 470
SYMBOL res 176 288 R180
WINDOW 0 36 76 Left 2
WINDOW 3 36 40 Left 2
SYMATTR InstName R4
SYMATTR Value 3K3
SYMBOL voltage -576 0 R0
SYMATTR InstName V2
SYMATTR Value 12V
SYMBOL voltage -576 384 R180
WINDOW 0 24 96 Left 2
WINDOW 3 24 16 Left 2
SYMATTR InstName V3
SYMATTR Value -12V
SYMBOL voltage -1088 224 R0
SYMATTR InstName V1
SYMATTR Value 24V
SYMBOL pnp -800 560 R180
SYMATTR InstName Q2
SYMATTR Value 2N4126
SYMBOL res -736 368 R0
SYMATTR InstName R1
SYMATTR Value 5K
SYMBOL res -736 144 R90
WINDOW 0 0 56 VBottom 2
WINDOW 3 32 56 VTop 2
SYMATTR InstName R2
SYMATTR Value 1K
SYMBOL diode -704 576 R180
WINDOW 0 24 64 Left 2
WINDOW 3 24 0 Left 2
SYMATTR InstName D1
SYMBOL res -144 176 R270
WINDOW 0 32 56 VTop 2
WINDOW 3 0 56 VBottom 2
SYMATTR InstName R5
SYMATTR Value 1K
SYMBOL res -144 48 R270
WINDOW 0 32 56 VTop 2
WINDOW 3 0 56 VBottom 2
SYMATTR InstName R6
SYMATTR Value 1K
SYMBOL diode -192 64 R0
SYMATTR InstName D3
SYMATTR Value 1N914
SYMBOL res 128 -112 R90
WINDOW 0 0 56 VBottom 2
WINDOW 3 32 56 VTop 2
SYMATTR InstName R7
SYMATTR Value 0.2
SYMBOL diode -208 128 R180
WINDOW 0 24 64 Left 2
WINDOW 3 24 0 Left 2
SYMATTR InstName D2
SYMATTR Value 1N914
SYMBOL voltage 160 304 R0
SYMATTR InstName V4
SYMATTR Value 5V
SYMBOL res 560 208 R0
SYMATTR InstName R8
SYMATTR Value 5
SYMBOL Darlington\\TIP142 -912 32 R270
SYMATTR InstName U2
TEXT -1120 752 Left 2 !.dc V4 0 5 0.1
