Version 4
SHEET 1 880 680
WIRE 144 0 -80 0
WIRE 144 16 144 0
WIRE -80 96 -80 0
WIRE 144 144 144 96
WIRE 224 144 144 144
WIRE 144 176 144 144
WIRE -80 256 -80 176
WIRE 144 256 -80 256
WIRE -80 288 -80 256
FLAG 224 144 Vout
IOPIN 224 144 Out
FLAG -80 288 0
SYMBOL voltage -80 80 R0
SYMATTR InstName V1
SYMATTR Value 35
SYMBOL res 160 272 R180
WINDOW 0 36 76 Left 2
WINDOW 3 36 40 Left 2
SYMATTR InstName R1
SYMATTR Value 240K
SYMBOL res 160 112 R180
WINDOW 0 36 76 Left 2
WINDOW 3 36 40 Left 2
SYMATTR InstName R2
SYMATTR Value 1500K
TEXT -64 352 Left 2 !.dc V1 0 40 0.1
